         MACRO                                                          00010000
&NAME    ADD   &A,&B,&C                                                 00020000
         L     R3,&A                                                    00030001
         A     R3,&B                                                    00040001
         ST    R3,&C                                                    00050001
         MEND                                                           00060000
