         MACRO                                                          00010000
&NAME    ADDK  &A=,&B=,&C=                                              00020000
         L     3,&A                                                     00030000
         A     3,&B                                                     00040000
         ST    3,&C                                                     00050000
         MEND                                                           00060000
